12
uracil [Geometry 1]
N      5.4350000000    3.2480000000   -0.9160000000
C      4.0910000000    3.2660000000   -0.6350000000
H      6.1090000000    3.3470000000   -0.1440000000
O      3.6470000000    3.3940000000    0.4950000000
N      3.2530000000    3.1180000000   -1.7170000000
C      3.6360000000    2.9550000000   -3.0390000000
O      2.7900000000    2.8420000000   -3.9230000000
C      5.0650000000    2.9530000000   -3.2390000000
C      5.9060000000    3.1010000000   -2.2020000000
H      2.2430000000    3.1380000000   -1.5140000000
H      5.4480000000    2.8330000000   -4.2580000000
H      7.0030000000    3.1190000000   -2.3450000000
12
	Energy:     -97.0646597 [Geometry 2]
N      5.4243200000    3.2473200000   -0.9432000000
C      4.0884600000    3.2635600000   -0.6412700000
H      6.0539600000    3.3540000000   -0.1556300000
O      3.6844500000    3.3986300000    0.5085100000
N      3.2419500000    3.1196300000   -1.7041900000
C      3.6298700000    2.9656800000   -3.0054000000
O      2.8354200000    2.8396100000   -3.9297000000
C      5.0864000000    2.9583200000   -3.2504400000
C      5.9121300000    3.0990400000   -2.2110100000
H      2.2534000000    3.1280100000   -1.5103500000
H      5.4241500000    2.8381400000   -4.2706700000
H      6.9915000000    3.1020600000   -2.3236600000
