12
uracil
N   5.435   3.248   -0.916
C   4.091   3.266   -0.635
H   6.109   3.347   -0.144
O   3.647   3.394   0.495
N   3.253   3.118   -1.717
C   3.636   2.955   -3.039
O   2.790   2.842   -3.923
C   5.065   2.953   -3.239
C   5.906   3.101   -2.202
H   2.243   3.138   -1.514
H   5.448   2.833   -4.258
H   7.003   3.119   -2.345
12
	Energy:     -97.0646597
N          5.42432        3.24732       -0.94320
C          4.08846        3.26356       -0.64127
H          6.05396        3.35400       -0.15563
O          3.68445        3.39863        0.50851
N          3.24195        3.11963       -1.70419
C          3.62987        2.96568       -3.00540
O          2.83542        2.83961       -3.92970
C          5.08640        2.95832       -3.25044
C          5.91213        3.09904       -2.21101
H          2.25340        3.12801       -1.51035
H          5.42415        2.83814       -4.27067
H          6.99150        3.10206       -2.32366
