20
ID: 1761416603372307746
C  0.241903532349  -1.416452031990  0.000000000312
C  1.316944473322  -0.483855181317  0.000000000267
C  1.082368969123  0.899356958876  0.000000000349
C  -0.241903543097  1.416452025822  0.000000000385
C  -1.316944469264  0.483855172964  0.000000000400
C  -1.082368963690  -0.899356951048  0.000000000405
H  2.349788045518  -0.859043931451  0.000000000186
H  1.933858095119  1.592326402358  0.000000000390
H  -2.349788047695  0.859043932741  0.000000000427
H  -1.933858097031  -1.592326404308  0.000000000482
C  -0.541835271410  2.884837486237  0.000000000421
C  0.352720568054  3.888645095296  0.000000000439
H  -1.614181479840  3.130785928061  0.000000000440
H  0.032583182469  4.936941408432  0.000000000463
H  1.434690173951  3.717430401046  0.000000000434
C  0.541835350362  -2.884837423027  0.000000000268
C  -0.352720638519  -3.888645167841  0.000000000317
H  1.614181459951  -3.130785925608  0.000000000197
H  -0.032583184026  -4.936941393244  0.000000000265
H  -1.434690155808  -3.717430401949  0.000000000417
