20
ID: 1761414123964944430
C  0.241903538005  -1.416452029672  0.000000000312
C  1.316944472440  -0.483855176571  0.000000000267
C  1.082368966561  0.899356957124  0.000000000349
C  -0.241903539420  1.416452029047  0.000000000385
C  -1.316944472042  0.483855175979  0.000000000400
C  -1.082368965920  -0.899356955771  0.000000000404
H  2.349788047833  -0.859043930056  0.000000000186
H  1.933858095529  1.592326406051  0.000000000390
H  -2.349788047945  0.859043930135  0.000000000427
H  -1.933858095463  -1.592326406140  0.000000000482
C  -0.541835306751  2.884837459431  0.000000000421
C  0.352720598584  3.888645126684  0.000000000439
H  -1.614181471468  3.130785928934  0.000000000440
H  0.032583186212  4.936941403453  0.000000000463
H  1.434690165900  3.717430399034  0.000000000434
C  0.541835316978  -2.884837451372  0.000000000268
C  -0.352720608120  -3.888645136698  0.000000000317
H  1.614181469148  -3.130785928618  0.000000000196
H  -0.032583186251  -4.936941401608  0.000000000265
H  -1.434690163970  -3.717430399295  0.000000000417
